mcp_server/case57.m
function mpc = case57
%CASE57 Canonical IEEE 57 bus balanced case for transfer experiments.
% Converted without numeric changes from PYPOWER 5.1.19 pypower/case57.py.
% Upstream: https://github.com/rwl/PYPOWER/blob/v5.1.19/pypower/case57.py
% Source SHA256: 97802230f6b4dafd484e97f061c69542359648ab7ab5d51949368e68f4c975f6
% IEEE CDF conversion: 20-Sep-2004 by cdf2matp, rev. 1.11.
% UW archive: 08/25/93, 100.0 MVA, 1961 W IEEE 57 Bus Test Case.
% Source manually sets generator 1 Qmax=200 and Qmin=-140 MVAr.
% Bus and branch row order, parallel circuits, taps, shunts, and costs
% are preserved. baseKV=0 and RATE_A=9900 are source data, not validated
% nominal voltage or equipment thermal-rating information.
%
% Copyright (c) 1996-2015, Power System Engineering Research Center (PSERC)
% and individual contributors (see AUTHORS file for details).
% All rights reserved.
% 
% Redistribution and use in source and binary forms, with or without
% modification, are permitted provided that the following conditions are
% met:
% 
% 1. Redistributions of source code must retain the above copyright
% notice, this list of conditions and the following disclaimer.
% 
% 2. Redistributions in binary form must reproduce the above copyright
% notice, this list of conditions and the following disclaimer in the
% documentation and/or other materials provided with the distribution.
% 
% 3. Neither the name of the copyright holder nor the names of its
% contributors may be used to endorse or promote products derived from
% this software without specific prior written permission.
% 
% THIS SOFTWARE IS PROVIDED BY THE COPYRIGHT HOLDERS AND CONTRIBUTORS "AS
% IS" AND ANY EXPRESS OR IMPLIED WARRANTIES, INCLUDING, BUT NOT LIMITED
% TO, THE IMPLIED WARRANTIES OF MERCHANTABILITY AND FITNESS FOR A
% PARTICULAR PURPOSE ARE DISCLAIMED. IN NO EVENT SHALL THE COPYRIGHT
% HOLDER OR CONTRIBUTORS BE LIABLE FOR ANY DIRECT, INDIRECT, INCIDENTAL,
% SPECIAL, EXEMPLARY, OR CONSEQUENTIAL DAMAGES (INCLUDING, BUT NOT LIMITED
% TO, PROCUREMENT OF SUBSTITUTE GOODS OR SERVICES; LOSS OF USE, DATA, OR
% PROFITS; OR BUSINESS INTERRUPTION) HOWEVER CAUSED AND ON ANY THEORY OF
% LIABILITY, WHETHER IN CONTRACT, STRICT LIABILITY, OR TORT (INCLUDING
% NEGLIGENCE OR OTHERWISE) ARISING IN ANY WAY OUT OF THE USE OF THIS
% SOFTWARE, EVEN IF ADVISED OF THE POSSIBILITY OF SUCH DAMAGE.
% 

mpc.version = '2';
mpc.baseMVA = 100;

mpc.bus = [
    1	3	55	17	0	0	1	1.04	0	0	1	1.0600000000000001	0.93999999999999995;
    2	2	3	88	0	0	1	1.01	-1.1799999999999999	0	1	1.0600000000000001	0.93999999999999995;
    3	2	41	21	0	0	1	0.98499999999999999	-5.9699999999999998	0	1	1.0600000000000001	0.93999999999999995;
    4	1	0	0	0	0	1	0.98099999999999998	-7.3200000000000003	0	1	1.0600000000000001	0.93999999999999995;
    5	1	13	4	0	0	1	0.97599999999999998	-8.5199999999999996	0	1	1.0600000000000001	0.93999999999999995;
    6	2	75	2	0	0	1	0.97999999999999998	-8.6500000000000004	0	1	1.0600000000000001	0.93999999999999995;
    7	1	0	0	0	0	1	0.98399999999999999	-7.5800000000000001	0	1	1.0600000000000001	0.93999999999999995;
    8	2	150	22	0	0	1	1.0049999999999999	-4.4500000000000002	0	1	1.0600000000000001	0.93999999999999995;
    9	2	121	26	0	0	1	0.97999999999999998	-9.5600000000000005	0	1	1.0600000000000001	0.93999999999999995;
    10	1	5	2	0	0	1	0.98599999999999999	-11.43	0	1	1.0600000000000001	0.93999999999999995;
    11	1	0	0	0	0	1	0.97399999999999998	-10.17	0	1	1.0600000000000001	0.93999999999999995;
    12	2	377	24	0	0	1	1.0149999999999999	-10.460000000000001	0	1	1.0600000000000001	0.93999999999999995;
    13	1	18	2.2999999999999998	0	0	1	0.97899999999999998	-9.7899999999999991	0	1	1.0600000000000001	0.93999999999999995;
    14	1	10.5	5.2999999999999998	0	0	1	0.96999999999999997	-9.3300000000000001	0	1	1.0600000000000001	0.93999999999999995;
    15	1	22	5	0	0	1	0.98799999999999999	-7.1799999999999997	0	1	1.0600000000000001	0.93999999999999995;
    16	1	43	3	0	0	1	1.0129999999999999	-8.8499999999999996	0	1	1.0600000000000001	0.93999999999999995;
    17	1	42	8	0	0	1	1.0169999999999999	-5.3899999999999997	0	1	1.0600000000000001	0.93999999999999995;
    18	1	27.199999999999999	9.8000000000000007	0	10	1	1.0009999999999999	-11.710000000000001	0	1	1.0600000000000001	0.93999999999999995;
    19	1	3.2999999999999998	0.59999999999999998	0	0	1	0.96999999999999997	-13.199999999999999	0	1	1.0600000000000001	0.93999999999999995;
    20	1	2.2999999999999998	1	0	0	1	0.96399999999999997	-13.41	0	1	1.0600000000000001	0.93999999999999995;
    21	1	0	0	0	0	1	1.008	-12.890000000000001	0	1	1.0600000000000001	0.93999999999999995;
    22	1	0	0	0	0	1	1.01	-12.84	0	1	1.0600000000000001	0.93999999999999995;
    23	1	6.2999999999999998	2.1000000000000001	0	0	1	1.008	-12.91	0	1	1.0600000000000001	0.93999999999999995;
    24	1	0	0	0	0	1	0.999	-13.25	0	1	1.0600000000000001	0.93999999999999995;
    25	1	6.2999999999999998	3.2000000000000002	0	5.9000000000000004	1	0.98199999999999998	-18.129999999999999	0	1	1.0600000000000001	0.93999999999999995;
    26	1	0	0	0	0	1	0.95899999999999996	-12.949999999999999	0	1	1.0600000000000001	0.93999999999999995;
    27	1	9.3000000000000007	0.5	0	0	1	0.98199999999999998	-11.48	0	1	1.0600000000000001	0.93999999999999995;
    28	1	4.5999999999999996	2.2999999999999998	0	0	1	0.997	-10.449999999999999	0	1	1.0600000000000001	0.93999999999999995;
    29	1	17	2.6000000000000001	0	0	1	1.01	-9.75	0	1	1.0600000000000001	0.93999999999999995;
    30	1	3.6000000000000001	1.8	0	0	1	0.96199999999999997	-18.68	0	1	1.0600000000000001	0.93999999999999995;
    31	1	5.7999999999999998	2.8999999999999999	0	0	1	0.93600000000000005	-19.34	0	1	1.0600000000000001	0.93999999999999995;
    32	1	1.6000000000000001	0.80000000000000004	0	0	1	0.94899999999999995	-18.460000000000001	0	1	1.0600000000000001	0.93999999999999995;
    33	1	3.7999999999999998	1.8999999999999999	0	0	1	0.94699999999999995	-18.5	0	1	1.0600000000000001	0.93999999999999995;
    34	1	0	0	0	0	1	0.95899999999999996	-14.1	0	1	1.0600000000000001	0.93999999999999995;
    35	1	6	3	0	0	1	0.96599999999999997	-13.859999999999999	0	1	1.0600000000000001	0.93999999999999995;
    36	1	0	0	0	0	1	0.97599999999999998	-13.59	0	1	1.0600000000000001	0.93999999999999995;
    37	1	0	0	0	0	1	0.98499999999999999	-13.41	0	1	1.0600000000000001	0.93999999999999995;
    38	1	14	7	0	0	1	1.0129999999999999	-12.710000000000001	0	1	1.0600000000000001	0.93999999999999995;
    39	1	0	0	0	0	1	0.98299999999999998	-13.460000000000001	0	1	1.0600000000000001	0.93999999999999995;
    40	1	0	0	0	0	1	0.97299999999999998	-13.619999999999999	0	1	1.0600000000000001	0.93999999999999995;
    41	1	6.2999999999999998	3	0	0	1	0.996	-14.050000000000001	0	1	1.0600000000000001	0.93999999999999995;
    42	1	7.0999999999999996	4.4000000000000004	0	0	1	0.96599999999999997	-15.5	0	1	1.0600000000000001	0.93999999999999995;
    43	1	2	1	0	0	1	1.01	-11.33	0	1	1.0600000000000001	0.93999999999999995;
    44	1	12	1.8	0	0	1	1.0169999999999999	-11.859999999999999	0	1	1.0600000000000001	0.93999999999999995;
    45	1	0	0	0	0	1	1.036	-9.25	0	1	1.0600000000000001	0.93999999999999995;
    46	1	0	0	0	0	1	1.05	-11.890000000000001	0	1	1.0600000000000001	0.93999999999999995;
    47	1	29.699999999999999	11.6	0	0	1	1.0329999999999999	-12.49	0	1	1.0600000000000001	0.93999999999999995;
    48	1	0	0	0	0	1	1.0269999999999999	-12.59	0	1	1.0600000000000001	0.93999999999999995;
    49	1	18	8.5	0	0	1	1.036	-12.92	0	1	1.0600000000000001	0.93999999999999995;
    50	1	21	10.5	0	0	1	1.0229999999999999	-13.390000000000001	0	1	1.0600000000000001	0.93999999999999995;
    51	1	18	5.2999999999999998	0	0	1	1.052	-12.52	0	1	1.0600000000000001	0.93999999999999995;
    52	1	4.9000000000000004	2.2000000000000002	0	0	1	0.97999999999999998	-11.470000000000001	0	1	1.0600000000000001	0.93999999999999995;
    53	1	20	10	0	6.2999999999999998	1	0.97099999999999997	-12.23	0	1	1.0600000000000001	0.93999999999999995;
    54	1	4.0999999999999996	1.3999999999999999	0	0	1	0.996	-11.69	0	1	1.0600000000000001	0.93999999999999995;
    55	1	6.7999999999999998	3.3999999999999999	0	0	1	1.0309999999999999	-10.779999999999999	0	1	1.0600000000000001	0.93999999999999995;
    56	1	7.5999999999999996	2.2000000000000002	0	0	1	0.96799999999999997	-16.039999999999999	0	1	1.0600000000000001	0.93999999999999995;
    57	1	6.7000000000000002	2	0	0	1	0.96499999999999997	-16.559999999999999	0	1	1.0600000000000001	0.93999999999999995;
];

mpc.gen = [
    1	128.90000000000001	-16.100000000000001	200	-140	1.04	100	1	575.88	0	0	0	0	0	0	0	0	0	0	0	0;
    2	0	-0.80000000000000004	50	-17	1.01	100	1	100	0	0	0	0	0	0	0	0	0	0	0	0;
    3	40	-1	60	-10	0.98499999999999999	100	1	140	0	0	0	0	0	0	0	0	0	0	0	0;
    6	0	0.80000000000000004	25	-8	0.97999999999999998	100	1	100	0	0	0	0	0	0	0	0	0	0	0	0;
    8	450	62.100000000000001	200	-140	1.0049999999999999	100	1	550	0	0	0	0	0	0	0	0	0	0	0	0;
    9	0	2.2000000000000002	9	-3	0.97999999999999998	100	1	100	0	0	0	0	0	0	0	0	0	0	0	0;
    12	310	128.5	155	-150	1.0149999999999999	100	1	410	0	0	0	0	0	0	0	0	0	0	0	0;
];

mpc.branch = [
    1	2	0.0083000000000000001	0.028000000000000001	0.129	9900	0	0	0	0	1	-360	360;
    2	3	0.0298	0.085000000000000006	0.081799999999999998	9900	0	0	0	0	1	-360	360;
    3	4	0.0112	0.036600000000000001	0.037999999999999999	9900	0	0	0	0	1	-360	360;
    4	5	0.0625	0.13200000000000001	0.0258	9900	0	0	0	0	1	-360	360;
    4	6	0.042999999999999997	0.14799999999999999	0.034799999999999998	9900	0	0	0	0	1	-360	360;
    6	7	0.02	0.10199999999999999	0.0276	9900	0	0	0	0	1	-360	360;
    6	8	0.0339	0.17299999999999999	0.047	9900	0	0	0	0	1	-360	360;
    8	9	0.0099000000000000008	0.050500000000000003	0.054800000000000001	9900	0	0	0	0	1	-360	360;
    9	10	0.036900000000000002	0.16789999999999999	0.043999999999999997	9900	0	0	0	0	1	-360	360;
    9	11	0.0258	0.0848	0.0218	9900	0	0	0	0	1	-360	360;
    9	12	0.064799999999999996	0.29499999999999998	0.077200000000000005	9900	0	0	0	0	1	-360	360;
    9	13	0.048099999999999997	0.158	0.040599999999999997	9900	0	0	0	0	1	-360	360;
    13	14	0.0132	0.043400000000000001	0.010999999999999999	9900	0	0	0	0	1	-360	360;
    13	15	0.0269	0.086900000000000005	0.023	9900	0	0	0	0	1	-360	360;
    1	15	0.0178	0.090999999999999998	0.098799999999999999	9900	0	0	0	0	1	-360	360;
    1	16	0.045400000000000003	0.20599999999999999	0.054600000000000003	9900	0	0	0	0	1	-360	360;
    1	17	0.023800000000000002	0.108	0.0286	9900	0	0	0	0	1	-360	360;
    3	15	0.016199999999999999	0.052999999999999999	0.054399999999999997	9900	0	0	0	0	1	-360	360;
    4	18	0	0.55500000000000005	0	9900	0	0	0.96999999999999997	0	1	-360	360;
    4	18	0	0.42999999999999999	0	9900	0	0	0.97799999999999998	0	1	-360	360;
    5	6	0.030200000000000001	0.064100000000000004	0.0124	9900	0	0	0	0	1	-360	360;
    7	8	0.013899999999999999	0.071199999999999999	0.019400000000000001	9900	0	0	0	0	1	-360	360;
    10	12	0.027699999999999999	0.12620000000000001	0.032800000000000003	9900	0	0	0	0	1	-360	360;
    11	13	0.0223	0.073200000000000001	0.018800000000000001	9900	0	0	0	0	1	-360	360;
    12	13	0.0178	0.058000000000000003	0.060400000000000002	9900	0	0	0	0	1	-360	360;
    12	16	0.017999999999999999	0.081299999999999997	0.021600000000000001	9900	0	0	0	0	1	-360	360;
    12	17	0.039699999999999999	0.17899999999999999	0.047600000000000003	9900	0	0	0	0	1	-360	360;
    14	15	0.017100000000000001	0.054699999999999999	0.014800000000000001	9900	0	0	0	0	1	-360	360;
    18	19	0.46100000000000002	0.68500000000000005	0	9900	0	0	0	0	1	-360	360;
    19	20	0.28299999999999997	0.434	0	9900	0	0	0	0	1	-360	360;
    21	20	0	0.77669999999999995	0	9900	0	0	1.0429999999999999	0	1	-360	360;
    21	22	0.073599999999999999	0.11700000000000001	0	9900	0	0	0	0	1	-360	360;
    22	23	0.0099000000000000008	0.0152	0	9900	0	0	0	0	1	-360	360;
    23	24	0.16600000000000001	0.25600000000000001	0.0083999999999999995	9900	0	0	0	0	1	-360	360;
    24	25	0	1.1819999999999999	0	9900	0	0	1	0	1	-360	360;
    24	25	0	1.23	0	9900	0	0	1	0	1	-360	360;
    24	26	0	0.047300000000000002	0	9900	0	0	1.0429999999999999	0	1	-360	360;
    26	27	0.16500000000000001	0.254	0	9900	0	0	0	0	1	-360	360;
    27	28	0.061800000000000001	0.095399999999999999	0	9900	0	0	0	0	1	-360	360;
    28	29	0.041799999999999997	0.058700000000000002	0	9900	0	0	0	0	1	-360	360;
    7	29	0	0.064799999999999996	0	9900	0	0	0.96699999999999997	0	1	-360	360;
    25	30	0.13500000000000001	0.20200000000000001	0	9900	0	0	0	0	1	-360	360;
    30	31	0.32600000000000001	0.497	0	9900	0	0	0	0	1	-360	360;
    31	32	0.50700000000000001	0.755	0	9900	0	0	0	0	1	-360	360;
    32	33	0.039199999999999999	0.035999999999999997	0	9900	0	0	0	0	1	-360	360;
    34	32	0	0.95299999999999996	0	9900	0	0	0.97499999999999998	0	1	-360	360;
    34	35	0.051999999999999998	0.078	0.0032000000000000002	9900	0	0	0	0	1	-360	360;
    35	36	0.042999999999999997	0.053699999999999998	0.0016000000000000001	9900	0	0	0	0	1	-360	360;
    36	37	0.029000000000000001	0.036600000000000001	0	9900	0	0	0	0	1	-360	360;
    37	38	0.065100000000000005	0.1009	0.002	9900	0	0	0	0	1	-360	360;
    37	39	0.023900000000000001	0.037900000000000003	0	9900	0	0	0	0	1	-360	360;
    36	40	0.029999999999999999	0.046600000000000003	0	9900	0	0	0	0	1	-360	360;
    22	38	0.019199999999999998	0.029499999999999998	0	9900	0	0	0	0	1	-360	360;
    11	41	0	0.749	0	9900	0	0	0.95499999999999996	0	1	-360	360;
    41	42	0.20699999999999999	0.35199999999999998	0	9900	0	0	0	0	1	-360	360;
    41	43	0	0.41199999999999998	0	9900	0	0	0	0	1	-360	360;
    38	44	0.028899999999999999	0.058500000000000003	0.002	9900	0	0	0	0	1	-360	360;
    15	45	0	0.1042	0	9900	0	0	0.95499999999999996	0	1	-360	360;
    14	46	0	0.073499999999999996	0	9900	0	0	0.90000000000000002	0	1	-360	360;
    46	47	0.023	0.068000000000000005	0.0032000000000000002	9900	0	0	0	0	1	-360	360;
    47	48	0.018200000000000001	0.023300000000000001	0	9900	0	0	0	0	1	-360	360;
    48	49	0.083400000000000002	0.129	0.0047999999999999996	9900	0	0	0	0	1	-360	360;
    49	50	0.080100000000000005	0.128	0	9900	0	0	0	0	1	-360	360;
    50	51	0.1386	0.22	0	9900	0	0	0	0	1	-360	360;
    10	51	0	0.071199999999999999	0	9900	0	0	0.93000000000000005	0	1	-360	360;
    13	49	0	0.191	0	9900	0	0	0.89500000000000002	0	1	-360	360;
    29	52	0.14419999999999999	0.187	0	9900	0	0	0	0	1	-360	360;
    52	53	0.076200000000000004	0.098400000000000001	0	9900	0	0	0	0	1	-360	360;
    53	54	0.18779999999999999	0.23200000000000001	0	9900	0	0	0	0	1	-360	360;
    54	55	0.17319999999999999	0.22650000000000001	0	9900	0	0	0	0	1	-360	360;
    11	43	0	0.153	0	9900	0	0	0.95799999999999996	0	1	-360	360;
    44	45	0.062399999999999997	0.1242	0.0040000000000000001	9900	0	0	0	0	1	-360	360;
    40	56	0	1.1950000000000001	0	9900	0	0	0.95799999999999996	0	1	-360	360;
    56	41	0.55300000000000005	0.54900000000000004	0	9900	0	0	0	0	1	-360	360;
    56	42	0.21249999999999999	0.35399999999999998	0	9900	0	0	0	0	1	-360	360;
    39	57	0	1.355	0	9900	0	0	0.97999999999999998	0	1	-360	360;
    57	56	0.17399999999999999	0.26000000000000001	0	9900	0	0	0	0	1	-360	360;
    38	49	0.115	0.17699999999999999	0.0030000000000000001	9900	0	0	0	0	1	-360	360;
    38	48	0.031199999999999999	0.0482	0	9900	0	0	0	0	1	-360	360;
    9	55	0	0.1205	0	9900	0	0	0.93999999999999995	0	1	-360	360;
];

mpc.gencost = [
    2	0	0	3	0.077579499999999996	20	0;
    2	0	0	3	0.01	40	0;
    2	0	0	3	0.25	20	0;
    2	0	0	3	0.01	40	0;
    2	0	0	3	0.022222200000000001	20	0;
    2	0	0	3	0.01	40	0;
    2	0	0	3	0.032258099999999998	20	0;
];
